---- qbsp / ericw-tools 2.0.0-alpha8-32-g47faf6c0 ----

--- Options Summary ---
    "nocolor" was set to "1" (from command line)

Input file: C:\Users\Mallios\Documents\GitHub\QuakeMapSinglePlayer\quake\lab-compile.map
Output file: C:\Users\Mallios\Documents\GitHub\QuakeMapSinglePlayer\quake\lab.bsp

INFO: using built-in palette.
    1,066 entities
       43 unique textures
    3,812 texinfos
    9,762 unique planes

INFO: world extents calculated to 4424 units
     3,537 brushes
    20,710 sides
    10,930 side bevels

            0 texture frames added
WARNING: unable to find texture skip
WARNING: unable to find texture C190
WARNING: unable to find texture rpal335
WARNING: unable to find texture cncrt01
WARNING: unable to find texture arcceil
WARNING: unable to find texture vtmet6b
WARNING: unable to find texture stone02
WARNING: unable to find texture C103
WARNING: unable to find texture rsmetfill3b
WARNING: unable to find texture mtlflt02
WARNING: unable to find texture blueice
WARNING: unable to find texture snow1
WARNING: unable to find texture ttex020
WARNING: unable to find texture rtex181
WARNING: unable to find texture her2crat2
WARNING: unable to find texture trntile4
WARNING: unable to find texture C130
WARNING: unable to find texture alcwall9
WARNING: unable to find texture cncrt01blue
WARNING: unable to find texture dfmetalfill4a
WARNING: unable to find texture trim01
WARNING: unable to find texture {swvine
WARNING: unable to find texture {web1
WARNING: unable to find texture {web3
WARNING: unable to find texture {web2
WARNING: unable to find texture wall06
WARNING: unable to find texture grass01
WARNING: unable to find texture swamp03
WARNING: unable to find texture rsmetfill3q
WARNING: unable to find texture screen
Processing hull 0...
    1,781 SOLID brushes
       13 DETAIL_WALL | Q2_UNUSED_8 brushes
    1,715 MIST | Q2_UNUSED_8 brushes
    3,509 brushes total
    20,552 visible sides
INFO: calculating BSP for 3509 brushes with 20552 sides
     3,509 brushes
    20,552 visible faces
    23,422 nodes
    18,088 expensive split nodes
     5,334 mid-split nodes
    23,423 leaves
    12,542 EMPTY leafs
     8,635 SOLID leafs
     2,225 MIST | Q2_UNUSED_8 leafs
        21 DETAIL_WALL | Q2_UNUSED_8 leafs
    23,423 leafs total
    61 max tree height
    20 avg tree height
    138 tiny portals
    104,238 tree portals
    1,680 outside leaves
    0 detail filled leafs
     3,509 brushes
    15,082 visible faces
     5,470 non-visible faces
    14,787 nodes
     2,353 non-visible nodes
    14,787 expensive split nodes
    14,788 leaves
     7,579 EMPTY leafs
     5,281 SOLID leafs
     1,913 MIST | Q2_UNUSED_8 leafs
        15 DETAIL_WALL | Q2_UNUSED_8 leafs
    14,788 leafs total
    60 max tree height
    21 avg tree height
    80 tiny portals
    72,650 tree portals
    640 outside leaves
    0 detail filled leafs
    80 tiny portals
    72,650 tree portals
    27,692 sides visible
    26,192 makefaces
    10,695 merged
     2,002 subdivided
    3,250 nodes pruned
    23 tiny portals
     8,852 player-occupiable leaves
     4,342 clusters of leaves
    17,105 vis portals
     2,686 SOLID leafs
     6,939 EMPTY leafs
     1,913 MIST | Q2_UNUSED_8 leafs
    11,538 leafs total
    60 max tree height
    20 avg tree height
         1 edges degenerated
    11,534 edges added by tjunctions
    15,093 faces optimized through MWT
    42,760 triangles computed from MWT
     3,573 faces created via optimization of MWT triangles
    44,836 edges
    21,072 faces
Processing hull 1...
Processing hull 2...
Writing lab.bsp as Quake BSP bsp29
Wrote lab.bsp

count   lump name    byte size 
      4 models              256
   8328 planes           166560
  23670 vertexes         284040
  11616 nodes            278784
   3027 texinfos         121080
  21206 faces            424120
  18579 clipnodes        148632
   8935 leafs            250180
  30890 marksurfaces      61780
  45112 edges            180448
  87844 surfedges        351376
     43 textures         283576
        lightdata             0
        visdata               0
        entdata           28262

4.771s seconds elapsed


