---- qbsp / ericw-tools 2.0.0-alpha8-29-gb2f23f76 ----

--- Options Summary ---
    "nocolor" was set to "1" (from command line)

Input file: D:\GitHub\QuakeMapSinglePlayer\quake\lab-compile.map
Output file: D:\GitHub\QuakeMapSinglePlayer\quake\lab.bsp

INFO: using built-in palette.
fs::addArchive: WARNING: archive 'C:/quake-leveldesign-starterkit-20241007-windows/extras/quake/prototype-wad/prototype_basic_1_3.wad' not found
fs::addArchive: WARNING: archive 'C:/quake-leveldesign-starterkit-20240923-windows/extras/quake/prototype-wad/prototype_basic_1_3.wad' not found
     1,382 entities
        27 unique textures
     5,442 texinfos
    12,352 unique planes

INFO: world extents calculated to 4424 units
     4,126 brushes
    25,792 sides
    11,919 side bevels

            0 texture frames added
WARNING: unable to find texture skip
WARNING: unable to find texture blueice
WARNING: unable to find texture C190
WARNING: unable to find texture rtex181
WARNING: unable to find texture alcwall9
WARNING: unable to find texture ttex020
WARNING: unable to find texture cncrt01
WARNING: unable to find texture mtlflt02
WARNING: unable to find texture {swvine
Processing hull 0...
    2,237 SOLID brushes
       13 DETAIL_WALL | Q2_UNUSED_8 brushes
    1,618 MIST | Q2_UNUSED_8 brushes
    3,868 brushes total
    24,296 visible sides
INFO: calculating BSP for 3868 brushes with 24296 sides
     3,868 brushes
    24,296 visible faces
    21,798 nodes
    21,361 expensive split nodes
       437 mid-split nodes
    21,799 leaves
    12,529 EMPTY leafs
     7,369 SOLID leafs
     1,872 MIST | Q2_UNUSED_8 leafs
        29 DETAIL_WALL | Q2_UNUSED_8 leafs
    21,799 leafs total
    61 max tree height
    20 avg tree height
    90 tiny portals
    100,837 tree portals
WARNING: Reached occupant "light" at (-128 -1440 560), no filling performed.
Leak file written to lab.pts
           13 portals written to lab.leak.prt
    90 tiny portals
    100,837 tree portals
    37,865 sides visible
    36,408 makefaces
    11,864 merged
     3,197 subdivided
    1,833 nodes pruned
    12,529 EMPTY leafs
     5,565 SOLID leafs
     1,872 MIST | Q2_UNUSED_8 leafs
    19,966 leafs total
    61 max tree height
    20 avg tree height
         1 edges degenerated
    15,837 edges added by tjunctions
    24,219 faces optimized through MWT
    66,103 triangles computed from MWT
     4,608 faces created via optimization of MWT triangles
    68,523 edges
    32,349 faces
Processing hull 1...
WARNING: Reached occupant "light" at (1024 -288 560), no filling performed.
Processing hull 2...
WARNING: Reached occupant "monster_zombie" at (1312 -752 808), no filling performed.
WARNING: worldspawn at 0 0 0 has long value for key wad (length 299 >= 127)
LIMITS EXCEEDED ON dclipnode_t::children
NOTE: limits exceeded for Quake BSP - switching to Quake BSP2
Writing lab.bsp as Quake BSP2 bsp2
Wrote lab.bsp

count   lump name    byte size 
    102 models             6528
  15976 planes           319520
  37505 vertexes         450060
  21148 nodes            930512
   4731 texinfos         189240
  34333 faces            961324
 256330 clipnodes       3075960
  15686 leafs            690184
  46471 marksurfaces     185884
  72656 edges            581248
 142475 surfedges        569900
     27 textures         350692
        lightdata             0
        visdata               0
        entdata           43947

3.865s seconds elapsed


