---- qbsp / ericw-tools 2.0.0-alpha8-32-g47faf6c0 ----

--- Options Summary ---
    "nocolor" was set to "1" (from command line)

Input file: C:\Users\Mallios\Documents\GitHub\QuakeMapSinglePlayer\quake\lab-compile.map
Output file: C:\Users\Mallios\Documents\GitHub\QuakeMapSinglePlayer\quake\lab.bsp

INFO: using built-in palette.
fs::addArchive: WARNING: archive 'D:/quake-leveldesign-starterkit-20240930-windows/extras/quake/prototype-wad/prototype_basic_1_3.wad' not found
fs::addArchive: WARNING: archive 'C:/quake-leveldesign-starterkit-20240923-windows/extras/quake/prototype-wad/prototype_basic_1_3.wad' not found
     1,384 entities
        26 unique textures
     5,454 texinfos
    12,352 unique planes

INFO: world extents calculated to 4424 units
     4,134 brushes
    25,840 sides
    11,924 side bevels

            0 texture frames added
WARNING: unable to find texture skip
WARNING: unable to find texture blueice
WARNING: unable to find texture C190
WARNING: unable to find texture rtex181
WARNING: unable to find texture alcwall9
WARNING: unable to find texture ttex020
WARNING: unable to find texture cncrt01
WARNING: unable to find texture mtlflt02
Processing hull 0...
    2,244 SOLID brushes
       13 DETAIL_WALL | Q2_UNUSED_8 brushes
    1,618 MIST | Q2_UNUSED_8 brushes
    3,875 brushes total
    24,338 visible sides
INFO: calculating BSP for 3875 brushes with 24338 sides
     3,875 brushes
    24,338 visible faces
    21,847 nodes
    21,408 expensive split nodes
       439 mid-split nodes
    21,848 leaves
    12,559 EMPTY leafs
     7,389 SOLID leafs
     1,871 MIST | Q2_UNUSED_8 leafs
        29 DETAIL_WALL | Q2_UNUSED_8 leafs
    21,848 leafs total
    61 max tree height
    20 avg tree height
    92 tiny portals
    100,949 tree portals
WARNING: Reached occupant "light" at (-304 -1464 560), no filling performed.
Leak file written to lab.pts
           14 portals written to lab.leak.prt
    92 tiny portals
    100,949 tree portals
    37,998 sides visible
    36,542 makefaces
    11,945 merged
     3,203 subdivided
    1,837 nodes pruned
    12,559 EMPTY leafs
     5,581 SOLID leafs
     1,871 MIST | Q2_UNUSED_8 leafs
    20,011 leafs total
    61 max tree height
    20 avg tree height
         1 edges degenerated
    15,817 edges added by tjunctions
    24,279 faces optimized through MWT
    66,202 triangles computed from MWT
     4,616 faces created via optimization of MWT triangles
    68,640 edges
    32,416 faces
Processing hull 1...
WARNING: Reached occupant "light" at (1176 -1336 1096), no filling performed.
Processing hull 2...
WARNING: Reached occupant "monster_zombie" at (872 -464 584), no filling performed.
WARNING: worldspawn at 0 0 0 has long value for key wad (length 299 >= 127)
LIMITS EXCEEDED ON dclipnode_t::children
NOTE: limits exceeded for Quake BSP - switching to Quake BSP2
Writing lab.bsp as Quake BSP2 bsp2
Wrote lab.bsp

count   lump name    byte size 
    103 models             6592
  15979 planes           319580
  37562 vertexes         450744
  21199 nodes            932756
   4741 texinfos         189640
  34406 faces            963368
 256724 clipnodes       3080688
  15722 leafs            691768
  46685 marksurfaces     186740
  72785 edges            582280
 142731 surfedges        570924
     26 textures         350688
        lightdata             0
        visdata               0
        entdata           44245

3.626s seconds elapsed


