---- qbsp / ericw-tools 2.0.0-alpha8-32-g47faf6c0 ----

--- Options Summary ---
    "nocolor" was set to "1" (from command line)

Input file: C:\Users\Mallios\Documents\GitHub\QuakeMapSinglePlayer\quake\lab-compile.map
Output file: C:\Users\Mallios\Documents\GitHub\QuakeMapSinglePlayer\quake\lab.bsp

INFO: using built-in palette.
     2 entities
     2 unique textures
     7 texinfos
    12 unique planes

INFO: world extents calculated to 328 units
    1 brushes
    6 sides

            0 texture frames added
WARNING: unable to find texture skip
Processing hull 0...
    1 SOLID brushes
    1 brushes total
    6 visible sides
INFO: calculating BSP for 1 brushes with 6 sides
    1 brushes
    6 visible faces
    6 nodes
    6 expensive split nodes
    7 leaves
    6 EMPTY leafs
    1 SOLID leafs
    7 leafs total
    7 max tree height
    4 avg tree height
    36 tree portals
WARNING: Reached occupant "info_player_start" at (0 0 40), no filling performed.
Leak file written to lab.pts
            1 portals written to lab.leak.prt
    36 tree portals
    6 sides visible
    6 makefaces
    6 EMPTY leafs
    1 SOLID leafs
    7 leafs total
    7 max tree height
    4 avg tree height
     6 faces optimized through MWT
    12 triangles computed from MWT
    12 edges
     6 faces
Processing hull 1...
WARNING: Reached occupant "info_player_start" at (0 0 40), no filling performed.
Processing hull 2...
WARNING: Reached occupant "info_player_start" at (0 0 40), no filling performed.
Writing lab.bsp as Quake BSP bsp29
Wrote lab.bsp

count   lump name    byte size 
      1 models               64
     17 planes              340
      8 vertexes             96
      6 nodes               144
      6 texinfos            240
      6 faces               120
     12 clipnodes            96
      7 leafs               196
      6 marksurfaces         12
     13 edges                52
     24 surfedges            96
      2 textures          21812
        lightdata             0
        visdata               0
        entdata             211

0.008s seconds elapsed


