---- qbsp / ericw-tools 2.0.0-alpha8-32-g47faf6c0 ----

--- Options Summary ---
    "nocolor" was set to "1" (from command line)

Input file: C:\Users\Mallios\Documents\GitHub\QuakeMapSinglePlayer\quake\lab-compile.map
Output file: C:\Users\Mallios\Documents\GitHub\QuakeMapSinglePlayer\quake\lab.bsp

INFO: using built-in palette.
    1,026 entities
       41 unique textures
    3,723 texinfos
    9,496 unique planes

INFO: world extents calculated to 4424 units
     3,388 brushes
    19,935 sides
    10,527 side bevels

            0 texture frames added
WARNING: unable to find texture skip
WARNING: unable to find texture C190
WARNING: unable to find texture rpal335
WARNING: unable to find texture arcceil
WARNING: unable to find texture vtmet6b
WARNING: unable to find texture stone02
WARNING: unable to find texture C103
WARNING: unable to find texture rsmetfill3b
WARNING: unable to find texture mtlflt02
WARNING: unable to find texture blueice
WARNING: unable to find texture snow1
WARNING: unable to find texture ttex020
WARNING: unable to find texture rtex181
WARNING: unable to find texture her2crat2
WARNING: unable to find texture trntile4
WARNING: unable to find texture C130
WARNING: unable to find texture alcwall9
WARNING: unable to find texture cncrt01blue
WARNING: unable to find texture cncrt01
WARNING: unable to find texture trim01
WARNING: unable to find texture {swvine
WARNING: unable to find texture {web1
WARNING: unable to find texture {web3
WARNING: unable to find texture {web2
WARNING: unable to find texture grass01
WARNING: unable to find texture swamp03
WARNING: unable to find texture rsmetfill3q
WARNING: unable to find texture screen
Processing hull 0...
    1,771 SOLID brushes
       13 DETAIL_WALL | Q2_UNUSED_8 brushes
    1,577 MIST | Q2_UNUSED_8 brushes
    3,361 brushes total
    19,783 visible sides
INFO: calculating BSP for 3361 brushes with 19783 sides
     3,361 brushes
    19,783 visible faces
    22,708 nodes
    17,813 expensive split nodes
     4,895 mid-split nodes
    22,709 leaves
    12,172 EMPTY leafs
     8,450 SOLID leafs
     2,066 MIST | Q2_UNUSED_8 leafs
        21 DETAIL_WALL | Q2_UNUSED_8 leafs
    22,709 leafs total
    61 max tree height
    20 avg tree height
    134 tiny portals
    101,430 tree portals
WARNING: Reached occupant "light" at (1248 -688 440), no filling performed.
Leak file written to lab.pts
           11 portals written to lab.leak.prt
    134 tiny portals
    101,430 tree portals
WARNING: 1 sides not found (use -verbose to display)
    35,249 sides visible
    33,831 makefaces
    10,036 merged
     3,887 subdivided
    2,131 nodes pruned
    12,172 EMPTY leafs
     6,340 SOLID leafs
     2,066 MIST | Q2_UNUSED_8 leafs
    20,578 leafs total
    61 max tree height
    19 avg tree height
    14,605 edges added by tjunctions
    24,806 faces optimized through MWT
    65,387 triangles computed from MWT
     4,013 faces created via optimization of MWT triangles
    67,150 edges
    31,695 faces
Processing hull 1...
WARNING: Reached occupant "info_player_deathmatch" at (1440 -704 296), no filling performed.
Processing hull 2...
WARNING: Reached occupant "info_player_deathmatch" at (1440 -704 296), no filling performed.
LIMITS EXCEEDED ON dclipnode_t::children
NOTE: limits exceeded for Quake BSP - switching to Quake BSP2
Writing lab.bsp as Quake BSP2 bsp2
Wrote lab.bsp

count   lump name    byte size 
      3 models              192
  13182 planes           263640
  34850 vertexes         418200
  20650 nodes            908600
   2981 texinfos         119240
  31823 faces            891044
 193348 clipnodes       2320176
  14314 leafs            629816
  40651 marksurfaces     162604
  67414 edges            539312
 132163 surfedges        528652
     41 textures         283568
        lightdata             0
        visdata               0
        entdata           28035

2.841s seconds elapsed


