---- qbsp / ericw-tools 2.0.0-alpha8-29-gb2f23f76 ----

--- Options Summary ---
    "nocolor" was set to "1" (from command line)

Input file: D:\GitHub\QuakeMapSinglePlayer\quake\lab-compile.map
Output file: D:\GitHub\QuakeMapSinglePlayer\quake\lab.bsp

INFO: using built-in palette.
fs::addArchive: WARNING: archive 'C:/quake-leveldesign-starterkit-20241007-windows/extras/quake/prototype-wad/prototype_basic_1_3.wad' not found
    1,008 entities
       42 unique textures
    3,632 texinfos
    9,296 unique planes

INFO: world extents calculated to 4424 units
     3,299 brushes
    19,499 sides
    10,168 side bevels

            0 texture frames added
WARNING: unable to find texture skip
WARNING: unable to find texture C190
WARNING: unable to find texture rpal335
WARNING: unable to find texture arcceil
WARNING: unable to find texture vtmet6b
WARNING: unable to find texture stone02
WARNING: unable to find texture C103
WARNING: unable to find texture rsmetfill3b
WARNING: unable to find texture mtlflt02
WARNING: unable to find texture blueice
WARNING: unable to find texture snow1
WARNING: unable to find texture ttex020
WARNING: unable to find texture rtex181
WARNING: unable to find texture her2crat2
WARNING: unable to find texture trntile4
WARNING: unable to find texture C130
WARNING: unable to find texture alcwall9
WARNING: unable to find texture cncrt01blue
WARNING: unable to find texture cncrt01
WARNING: unable to find texture trim01
WARNING: unable to find texture {swvine
WARNING: unable to find texture {web1
WARNING: unable to find texture {web3
WARNING: unable to find texture {web2
WARNING: unable to find texture grass01
WARNING: unable to find texture swamp03
WARNING: unable to find texture rsmetfill3q
WARNING: unable to find texture screen
Processing hull 0...
    1,783 SOLID brushes
       13 DETAIL_WALL | Q2_UNUSED_8 brushes
    1,477 MIST | Q2_UNUSED_8 brushes
    3,273 brushes total
    19,345 visible sides
INFO: calculating BSP for 3273 brushes with 19345 sides
     3,273 brushes
    19,345 visible faces
    21,136 nodes
    16,755 expensive split nodes
     4,381 mid-split nodes
    21,137 leaves
    11,434 EMPTY leafs
     7,751 SOLID leafs
     1,931 MIST | Q2_UNUSED_8 leafs
        21 DETAIL_WALL | Q2_UNUSED_8 leafs
    21,137 leafs total
    61 max tree height
    20 avg tree height
    128 tiny portals
    95,728 tree portals
WARNING: Reached occupant "info_player_deathmatch" at (576 -1528 552), no filling performed.
Leak file written to lab.pts
            8 portals written to lab.leak.prt
    128 tiny portals
    95,728 tree portals
WARNING: 1 sides not found (use -verbose to display)
    33,622 sides visible
    32,299 makefaces
     9,912 merged
     3,698 subdivided
    1,991 nodes pruned
    11,434 EMPTY leafs
     5,781 SOLID leafs
     1,931 MIST | Q2_UNUSED_8 leafs
    19,146 leafs total
    61 max tree height
    19 avg tree height
    14,142 edges added by tjunctions
    23,275 faces optimized through MWT
    61,867 triangles computed from MWT
     3,922 faces created via optimization of MWT triangles
    63,581 edges
    30,007 faces
Processing hull 1...
Processing hull 2...
WARNING: worldspawn at 0 0 0 has long value for key wad (length 199 >= 127)
Writing lab.bsp as Quake BSP bsp29
Wrote lab.bsp

count   lump name    byte size 
     14 models              896
   8203 planes           164060
  33024 vertexes         396288
  19260 nodes            462240
   2925 texinfos         117000
  30161 faces            603220
  17602 clipnodes        140816
  13494 leafs            377832
  38931 marksurfaces      77862
  63892 edges            255568
 125307 surfedges        501228
     42 textures         305372
        lightdata             0
        visdata               0
        entdata           29594

4.243s seconds elapsed


