---- qbsp / ericw-tools 2.0.0-alpha8-29-gb2f23f76 ----

--- Options Summary ---
    "nocolor" was set to "1" (from command line)

Input file: D:\GitHub\QuakeMapSinglePlayer\quake\lab-compile.map
Output file: D:\GitHub\QuakeMapSinglePlayer\quake\lab.bsp

INFO: using built-in palette.
fs::addArchive: WARNING: archive 'C:/quake-leveldesign-starterkit-20241007-windows/extras/quake/prototype-wad/prototype_basic_1_3.wad' not found
fs::addArchive: WARNING: archive 'C:/quake-leveldesign-starterkit-20240923-windows/extras/quake/prototype-wad/prototype_basic_1_3.wad' not found
fs::addArchive: WARNING: archive 'C:/Users/yn0tm/OneDrive/Documents/GitHub/QuakeMapLab/WADs/rmq_trans.wad' not found
fs::addArchive: WARNING: archive 'C:/Users/yn0tm/OneDrive/Documents/GitHub/QuakeMapLab/WADs/DktE1.wad' not found
fs::addArchive: WARNING: archive 'C:/Users/yn0tm/OneDrive/Documents/GitHub/QuakeMapLab/WADs/DktE3.wad' not found
fs::addArchive: WARNING: archive 'C:/Users/yn0tm/OneDrive/Documents/GitHub/QuakeMapLab/WADs/praevus.wad' not found
fs::addArchive: WARNING: archive 'C:/Users/yn0tm/OneDrive/Documents/GitHub/QuakeMapLab/WADs/kj_ogro_ice.wad' not found
fs::addArchive: WARNING: archive 'C:/Users/yn0tm/OneDrive/Documents/GitHub/QuakeMapLab/WADs/jug.wad' not found
fs::addArchive: WARNING: archive 'C:/quake-leveldesign-starterkit-20240923-windows/extras/quake/prototype-wad/prototype_buttons_1_3.wad' not found
     1,571 entities
        49 unique textures
     8,820 texinfos
    13,684 unique planes

INFO: world extents calculated to 4424 units
     4,384 brushes
    27,329 sides
    13,420 side bevels

            2 texture frames added
WARNING: unable to find texture skip
Processing hull 0...
    2,299 SOLID brushes
       25 DETAIL_WALL | Q2_UNUSED_8 brushes
    1,779 MIST | Q2_UNUSED_8 brushes
       13 SKY brushes
    4,116 brushes total
    25,773 visible sides
INFO: calculating BSP for 4116 brushes with 25773 sides
     4,116 brushes
    25,773 visible faces
    24,409 nodes
    23,985 expensive split nodes
       424 mid-split nodes
    24,410 leaves
    13,452 EMPTY leafs
       336 SKY leafs
     8,508 SOLID leafs
     2,064 MIST | Q2_UNUSED_8 leafs
        50 DETAIL_WALL | Q2_UNUSED_8 leafs
    24,410 leafs total
    125 max tree height
     24 avg tree height
    329 tiny portals
    113,000 tree portals
WARNING: Reached occupant "light" at (1088 -1664 664), no filling performed.
Leak file written to lab.pts
           11 portals written to lab.leak.prt
    329 tiny portals
    113,000 tree portals
WARNING: 2 sides not found (use -verbose to display)
    41,253 sides visible
    39,607 makefaces
    12,862 merged
     2,151 subdivided
    2,629 nodes pruned
    13,452 EMPTY leafs
       336 SKY leafs
     5,929 SOLID leafs
     2,064 MIST | Q2_UNUSED_8 leafs
    21,781 leafs total
    124 max tree height
     22 avg tree height
         3 edges degenerated
    15,994 edges added by tjunctions
    24,946 faces optimized through MWT
    67,860 triangles computed from MWT
     4,578 faces created via optimization of MWT triangles
    70,956 edges
    33,474 faces
Processing hull 1...
WARNING: Reached occupant "light" at (1344 -1344 -64), no filling performed.
Processing hull 2...
WARNING: Reached occupant "light" at (1088 -1664 664), no filling performed.
WARNING: worldspawn at 0 0 0 has long value for key wad (length 1207 >= 127)
LIMITS EXCEEDED ON dclipnode_t::children
NOTE: limits exceeded for Quake BSP - switching to Quake BSP2
Writing lab.bsp as Quake BSP2 bsp2
Wrote lab.bsp

count   lump name    byte size 
    112 models             7168
  17474 planes           349480
  38798 vertexes         465576
  23023 nodes           1013012
   7272 texinfos         290880
  35549 faces            995372
 271951 clipnodes       3263412
  17207 leafs            757108
  48975 marksurfaces     195900
  75276 edges            602208
 147286 surfedges        589144
     51 textures         591088
        lightdata             0
        visdata               0
        entdata           55195

4.650s seconds elapsed


