---- qbsp / ericw-tools 2.0.0-alpha8-29-gb2f23f76 ----

--- Options Summary ---
    "nocolor" was set to "1" (from command line)

Input file: C:\Users\yn0tm\OneDrive\Documents\GitHub\QuakeMapSinglePlayer\quake\lab-compile.map
Output file: C:\Users\yn0tm\OneDrive\Documents\GitHub\QuakeMapSinglePlayer\quake\lab.bsp

INFO: using built-in palette.
fs::addArchive: WARNING: archive 'C:/quake-leveldesign-starterkit-20241007-windows/extras/quake/prototype-wad/prototype_basic_1_3.wad' not found
fs::addArchive: WARNING: archive 'D:/quake-leveldesign-starterkit-20240930-windows/extras/quake/prototype-wad/prototype_basic_1_3.wad' not found
     1,382 entities
        28 unique textures
     5,445 texinfos
    12,348 unique planes

INFO: world extents calculated to 4424 units
     4,126 brushes
    25,792 sides
    11,919 side bevels

            0 texture frames added
WARNING: unable to find texture skip
WARNING: unable to find texture blueice
WARNING: unable to find texture C190
WARNING: unable to find texture rtex181
WARNING: unable to find texture alcwall9
WARNING: unable to find texture rpal335
WARNING: unable to find texture ttex020
WARNING: unable to find texture cncrt01
WARNING: unable to find texture mtlflt02
WARNING: unable to find texture {swvine
Processing hull 0...
    2,237 SOLID brushes
       13 DETAIL_WALL | Q2_UNUSED_8 brushes
    1,618 MIST | Q2_UNUSED_8 brushes
    3,868 brushes total
    24,296 visible sides
INFO: calculating BSP for 3868 brushes with 24296 sides
     3,868 brushes
    24,296 visible faces
    21,790 nodes
    21,353 expensive split nodes
       437 mid-split nodes
    21,791 leaves
    12,523 EMPTY leafs
     7,368 SOLID leafs
     1,871 MIST | Q2_UNUSED_8 leafs
        29 DETAIL_WALL | Q2_UNUSED_8 leafs
    21,791 leafs total
    61 max tree height
    20 avg tree height
    90 tiny portals
    100,795 tree portals
WARNING: Reached occupant "light" at (-128 -1440 560), no filling performed.
Leak file written to lab.pts
           13 portals written to lab.leak.prt
    90 tiny portals
    100,795 tree portals
    37,852 sides visible
    36,396 makefaces
    11,860 merged
     3,193 subdivided
    1,837 nodes pruned
    12,523 EMPTY leafs
     5,560 SOLID leafs
     1,871 MIST | Q2_UNUSED_8 leafs
    19,954 leafs total
    61 max tree height
    20 avg tree height
         1 edges degenerated
    15,832 edges added by tjunctions
    24,207 faces optimized through MWT
    66,074 triangles computed from MWT
     4,607 faces created via optimization of MWT triangles
    68,495 edges
    32,336 faces
Processing hull 1...
WARNING: Reached occupant "light" at (1024 -288 560), no filling performed.
Processing hull 2...
WARNING: Reached occupant "monster_zombie" at (1312 -752 808), no filling performed.
WARNING: worldspawn at 0 0 0 has long value for key wad (length 299 >= 127)
LIMITS EXCEEDED ON dclipnode_t::children
NOTE: limits exceeded for Quake BSP - switching to Quake BSP2
Writing lab.bsp as Quake BSP2 bsp2
Wrote lab.bsp

count   lump name    byte size 
    102 models             6528
  15975 planes           319500
  37490 vertexes         449880
  21136 nodes            929984
   4734 texinfos         189360
  34320 faces            960960
 256688 clipnodes       3080256
  15679 leafs            689876
  46430 marksurfaces     185720
  72628 edges            581024
 142420 surfedges        569680
     28 textures         350696
        lightdata             0
        visdata               0
        entdata           43947

8.349s seconds elapsed


