---- qbsp / ericw-tools 2.0.0-alpha8-32-g47faf6c0 ----

--- Options Summary ---
    "nocolor" was set to "1" (from command line)

Input file: C:\Users\Mallios\Documents\GitHub\QuakeMapSinglePlayer\quake\lab-compile.map
Output file: C:\Users\Mallios\Documents\GitHub\QuakeMapSinglePlayer\quake\lab.bsp

INFO: using built-in palette.
    1,000 entities
       41 unique textures
    3,663 texinfos
    9,310 unique planes

INFO: world extents calculated to 4424 units
     3,295 brushes
    19,458 sides
    10,261 side bevels

            0 texture frames added
WARNING: unable to find texture skip
WARNING: unable to find texture C190
WARNING: unable to find texture rpal335
WARNING: unable to find texture arcceil
WARNING: unable to find texture vtmet6b
WARNING: unable to find texture stone02
WARNING: unable to find texture C103
WARNING: unable to find texture rsmetfill3b
WARNING: unable to find texture mtlflt02
WARNING: unable to find texture blueice
WARNING: unable to find texture snow1
WARNING: unable to find texture ttex020
WARNING: unable to find texture rtex181
WARNING: unable to find texture her2crat2
WARNING: unable to find texture trntile4
WARNING: unable to find texture C130
WARNING: unable to find texture alcwall9
WARNING: unable to find texture cncrt01blue
WARNING: unable to find texture cncrt01
WARNING: unable to find texture trim01
WARNING: unable to find texture {swvine
WARNING: unable to find texture {web1
WARNING: unable to find texture {web3
WARNING: unable to find texture {web2
WARNING: unable to find texture grass01
WARNING: unable to find texture swamp03
WARNING: unable to find texture rsmetfill3q
WARNING: unable to find texture screen
Processing hull 0...
    1,769 SOLID brushes
       13 DETAIL_WALL | Q2_UNUSED_8 brushes
    1,486 MIST | Q2_UNUSED_8 brushes
    3,268 brushes total
    19,306 visible sides
INFO: calculating BSP for 3268 brushes with 19306 sides
     3,268 brushes
    19,306 visible faces
    22,481 nodes
    17,586 expensive split nodes
     4,895 mid-split nodes
    22,482 leaves
    12,035 EMPTY leafs
     8,458 SOLID leafs
     1,968 MIST | Q2_UNUSED_8 leafs
        21 DETAIL_WALL | Q2_UNUSED_8 leafs
    22,482 leafs total
    61 max tree height
    20 avg tree height
    133 tiny portals
    100,327 tree portals
    1,678 outside leaves
    0 detail filled leafs
     3,268 brushes
    14,050 visible faces
     5,256 non-visible faces
    14,057 nodes
     2,210 non-visible nodes
    14,057 expensive split nodes
    14,058 leaves
     7,183 EMPTY leafs
     5,199 SOLID leafs
     1,662 MIST | Q2_UNUSED_8 leafs
        14 DETAIL_WALL | Q2_UNUSED_8 leafs
    14,058 leafs total
    59 max tree height
    21 avg tree height
    77 tiny portals
    69,287 tree portals
    545 outside leaves
    0 detail filled leafs
    77 tiny portals
    69,287 tree portals
    26,430 sides visible
    25,114 makefaces
    10,262 merged
     2,010 subdivided
    3,096 nodes pruned
    23 tiny portals
     8,300 player-occupiable leaves
     4,333 clusters of leaves
    17,009 vis portals
     2,662 SOLID leafs
     6,638 EMPTY leafs
     1,662 MIST | Q2_UNUSED_8 leafs
    10,962 leafs total
    59 max tree height
    20 avg tree height
         1 edges degenerated
    11,255 edges added by tjunctions
    14,524 faces optimized through MWT
    41,338 triangles computed from MWT
     3,468 faces created via optimization of MWT triangles
    43,239 edges
    20,330 faces
Processing hull 1...
Processing hull 2...
Writing lab.bsp as Quake BSP bsp29
Wrote lab.bsp

count   lump name    byte size 
      3 models              192
   8102 planes           162040
  22793 vertexes         273516
  11034 nodes            264816
   2907 texinfos         116280
  20458 faces            409160
  18487 clipnodes        147896
   8376 leafs            234528
  29433 marksurfaces      58866
  43503 edges            174012
  84846 surfedges        339384
     41 textures         283568
        lightdata             0
        visdata               0
        entdata           27769

4.674s seconds elapsed


